LAMMPS (15 Sep 2022)
# 3d WCA system, random initial configuration

#variable density equal 0.5
variable initial_temperature equal 3.0
variable final_temperature equal 0.1
variable dt equal 0.01
variable tau equal 100*0.01
variable thermo_time equal 50000*0.01
variable equil_steps equal 50000
variable run_steps equal 100000

units           lj
atom_style      atomic
dimension       3

lattice         fcc 1.0
Lattice spacing in x,y,z = 1.5874011 1.5874011 1.5874011
region          box block -4 4 -4 4 -4 4
# number of atom types
create_box      1 box
Created orthogonal box = (-6.3496042 -6.3496042 -6.3496042) to (6.3496042 6.3496042 6.3496042)
create_atoms    1 box
Created 2048 atoms
mass 1 1.0

velocity all create 3 12345

pair_style      lj/cut 1.0
#type_1 type_2 epsilon sigma cutoff
pair_coeff      1 1 10.0 0.89089871814 1.0
pair_modify shift yes

timestep 0.01
thermo 500

fix 1 all nvt temp 3 3 1
run 50000
Generated 0 of 0 mixed pair_coeff terms from geometric mixing rule
Step          Temp          E_pair         E_mol          TotEng         Press
0   3              0              0              4.4978027      2.9985352
Averages over the last 51 of 101 rows, steps 25000 to 50000:
Temp E_pair E_mol TotEng Press
3.01246 1.80904 0 6.32552 25.3115
Loop time of 11.2766 on 3 procs for 50000 steps with 2048 atoms

unfix 1
dump           1 all atom 100000 3ddWCA_T0.1_d1.0_N100000.lammpstrj
dump           2 all dcd 500 3ddWCA_T0.1_d1.0_N100000.dcd
fix 1 all nvt temp 3 0.1 1

run 100000
Generated 0 of 0 mixed pair_coeff terms from geometric mixing rule
Step          Temp          E_pair         E_mol          TotEng         Press
50000   2.9299356      1.834519       0              6.2272765      25.524835
Averages over the last 101 of 201 rows, steps 100000 to 150000:
Temp E_pair E_mol TotEng Press
0.829145 0.413414 0 1.65652 8.49876
Loop time of 17.5553 on 3 procs for 100000 steps with 2048 atoms
