LAMMPS (15 Sep 2022)
# 3d WCA system, random initial configuration

#variable density equal 0.5
variable initial_temperature equal 3.0
variable final_temperature equal 0.1
variable dt equal 0.01
variable tau equal 100*0.01
variable thermo_time equal 50000*0.01
variable equil_steps equal 50000
variable run_steps equal 100000

units           lj
atom_style      atomic
dimension       3

lattice         fcc 0.8
Lattice spacing in x,y,z = 1.7099759 1.7099759 1.7099759
region          box block -4 4 -4 4 -4 4
# number of atom types
create_box      1 box
Created orthogonal box = (-6.8399038 -6.8399038 -6.8399038) to (6.8399038 6.8399038 6.8399038)
create_atoms    1 box
Created 2048 atoms
mass 1 1.0

velocity all create 3 12345

pair_style      lj/cut 1.0
#type_1 type_2 epsilon sigma cutoff
pair_coeff      1 1 10.0 0.89089871814 1.0
pair_modify shift yes

timestep 0.01
thermo 500

fix 1 all nvt temp 3 3 1
run 50000
Generated 0 of 0 mixed pair_coeff terms from geometric mixing rule
Step          Temp          E_pair         E_mol          TotEng         Press
0   3              0              0              4.4978027      2.3988281
Averages over the last 51 of 101 rows, steps 25000 to 50000:
Temp E_pair E_mol TotEng Press
2.99777 0.990147 0 5.4846 12.4066
Loop time of 9.62159 on 3 procs for 50000 steps with 2048 atoms

unfix 1
dump           1 all atom 100000 3ddWCA_T0.1_d0.8_N100000.lammpstrj
dump           2 all dcd 500 3ddWCA_T0.1_d0.8_N100000.dcd
fix 1 all nvt temp 3 0.1 1

run 100000
Generated 0 of 0 mixed pair_coeff terms from geometric mixing rule
Step          Temp          E_pair         E_mol          TotEng         Press
50000   2.9478711      0.97019001     0              5.3898376      12.173234
Averages over the last 101 of 201 rows, steps 100000 to 150000:
Temp E_pair E_mol TotEng Press
0.826865 0.213691 0 1.45338 3.90167
Loop time of 14.9819 on 3 procs for 100000 steps with 2048 atoms
